/*--------------------------------*- C++ -*----------------------------------*\
| =========                 |                                                 |
| \\      /  F ield         | OpenFOAM: The Open Source CFD Toolbox           |
|  \\    /   O peration     | Version:  dev                                   |
|   \\  /    A nd           | Web:      www.OpenFOAM.org                      |
|    \\/     M anipulation  |                                                 |
\*---------------------------------------------------------------------------*/
FoamFile
{
    version     2.0;
    format      ascii;
    class       dictionary;
    object      controlDict;
}

// NB: the #functions do not work here
// * * * * * * * * * * * * * * * * * * * * * * * * * * * * * * * * * * * * * //

Documentation
{
    docBrowser      "firefox";
    doxyDocDirs
    (
        "$WM_PROJECT_USER_DIR/html"
        "~OpenFOAM/html"
        "$WM_PROJECT_DIR/doc/Doxygen/html"
        "http://cpp.openfoam.org/dev"
    );
    doxySourceFileExt "_8C.html";
}


InfoSwitches
{
    writePrecision          6;
    writeJobControl         0;
    writeJobInfo            0;
    writeDictionaries       0;
    writeOptionalEntries    0;

    // Allow case-supplied C++ code (#codeStream, codedFixedValue)
    allowSystemOperations   1;
}


OptimisationSwitches
{
    // On NFS mounted file system: maximum wait for files to appear/get
    // updated. Set to 0 on distributed case.
    fileModificationSkew 10;

    //- Modification checking:
    //  - timeStamp         : use modification time on file
    //  - inotify           : use inotify framework
    //  - timeStampMaster   : do time stamp (and file reading) only on master.
    //  - inotifyMaster     : do inotify (and file reading) only on master.
    fileModificationChecking timeStampMaster;

    //- Parallel IO file handler
    //  uncollated (default), collated or masterUncollated
    fileHandler uncollated;

    //- collated: thread buffer size for queued file writes.
    //  If set to 0 or not sufficient for the file size threading is not used.
    //  Default: 2e9
    maxThreadFileBufferSize 2e9;

    //- masterUncollated: non-blocking buffer size.
    //  If the file exceeds this buffer size scheduled transfer is used.
    //  Default: 2e9
    maxMasterFileBufferSize 2e9;

    commsType       nonBlocking; // scheduled; // blocking;
    floatTransfer   0;
    nProcsSimpleSum 0;

    // Force dumping (at next timestep) upon signal (-1 to disable)
    writeNowSignal              -1; // 10;

    // Force dumping (at next timestep) upon signal (-1 to disable) and exit
    stopAtWriteNowSignal        -1;
}


DebugSwitches
{
    Analytical          1;
    APIdiffCoefFunc     1;
    Ar                  1;
    BirdCarreau         1;
    C10H22              1;
    C12H26              1;
    C13H28              1;
    C14H30              1;
    C16H34              1;
    C2H5OH              1;
    C2H6                1;
    C2H6O               1;
    C3H6O               1;
    C3H8                1;
    C4H10O              1;
    C6H14               1;
    C6H6                1;
    C7H16               1;
    C7H8                1;
    C8H10               1;
    C8H18               1;
    C9H20               1;
    CH3OH               1;
    CH4N2O              1;
    CarnahanStarling    1;
    CallbackRegistry    1;
    CentredFitData<biLinearFitPolynomial>           1;
    CentredFitData<linearFitPolynomial>             1;
    CentredFitData<quadraticFitPolynomial>          1;
    CentredFitData<quadraticLinearFitPolynomial>    1;
    ChomiakInjector     1;
    Cloud<basicKinematicParcel> 1;
    Cloud<basicReactingParcel>  1;
    Cloud<fluidThermoParcel>    1;
    Cloud<indexedParticle>  1;
    Cloud<parcel>           1;
    Cloud<passiveParticle>  1;
    Cloud<trackedParticle>  1;
    CoEuler             1;
    CompositionModel    1;
    ConeInjection       1;
    Constant            1;
    ConstantRateDevolatilisation    1;
    CrankNicolson      1;
    CrossPowerLaw       1;
    Cs                  1;
    DIC                 1;
    DICGaussSeidel      1;
    DILU                1;
    DILUGaussSeidel     1;
    Function1           1;
    DeardorffDiffStress 1;
    DispersionModel     1;
    DispersionRASModel  1;
    DragModel           1;
    ETAB                1;
    Ergun               1;
    Euler               1;
    EulerImplicit       1;
    EulerRotation       1;
    extendedCellToFaceStencil 1;
    FDIC                1;
    FaceCellWave        1;
    GAMG                1;
    GAMGAgglomeration   1;
    GAMGInterface       1;
    GAMGInterfaceField  1;
    Gamma               1;
    Gamma01             1;
    GammaV              1;
    Gauss               1;
    GaussSeidel         1;
    Gibilaro            1;
    Gidaspow            1;
    GidaspowErgunWenYu  1;
    GidaspowSchillerNaumann 1;
    GradientDispersionRAS   1;
    Gulders             1;
    GuldersEGR          1;
    H2O                 1;
    HashTable           0;
    HeatTransferModel   1;
    HerschelBulkley     1;
    HrenyaSinclair      1;
    IC8H18              1;
    IDDESDelta          1;
    IDEA                1;
    IFstream            1;
    IOMap<dictionary>   1;
    IOPtrList<MRFZone>  1;
    IOPtrList<coordinateSystem> 1;
    IOPtrList<injector> 1;
    IOPtrList<porousZone>   1;
    IOobject            1;
    InjectionModel      1;
    IntegrationScheme   1;
    JohnsonJackson      1;
    KRR4                1;
    KinematicCloud<basicKinematicParcel> 1;
    KinematicCloud<basicReactingParcel> 1;
    KinematicCloud<fluidThermoParcel>   1;
    KinematicParcel<basicReactingParcel> 1;
    KinematicParcel<fluidThermoParcel>  1;
    LESModel            1;
    LESdelta            1;
    LESfilter           1;
    LISA                1;
    LRR                 1;
    LRRDiffStress       1;
    LamBremhorstKE      1;
    LaunderGibsonRSTM   1;
    LaunderSharmaKE     1;
    LienCubicKE         1;
    LienCubicKELowRe    1;
    LienLeschzinerLowRe 1;
    MB                  1;
    MC                  1;
    MCV                 1;
    MUSCL               1;
    MUSCL01             1;
    MUSCLV              1;
    ManualInjection     1;
    MarshakRadiation    1;
    MarshakRadiationFixedT  1;
    MassTransferModel   1;
    MeshWave            1;
    Minmod              1;
    MinmodV             1;
    N2                  1;
    NSRDSfunc0          1;
    NSRDSfunc1          1;
    NSRDSfunc14         1;
    NSRDSfunc2          1;
    NSRDSfunc3          1;
    NSRDSfunc4          1;
    NSRDSfunc5          1;
    NSRDSfunc6          1;
    NSRDSfunc7          1;
    Newtonian           1;
    NoDispersion        1;
    NoDrag              1;
    NoHeatTransfer      1;
    NoInjection         1;
    NoMassTransfer      1;
    NoSurfaceReaction   1;
    NonlinearKEShih     1;
    ODE                 1;
    ODESolver           1;
    OFstream            1;
    ORourke             1;
    OSPRE               1;
    OSPREV              1;
    P1                  1;
    PBiCG               1;
    PCG                 1;
    PackedList          1;
    ParSortableList     1;
    PatchToPatchInterpolation 1;
    Phi                 1;
    PointEdgeWave       1;
    POSIX               1;
    Prandtl             1;
    PrimitivePatch      1;
    Pstream             1;
    QUICK               1;
    QUICKV              1;
    QZeta               1;
    RASModel            1;
    RK                  1;
    RNGkEpsilon         1;
    RanzMarshall        1;
    ReactingCloud<basicReactingParcel>  1;
    ReactingParcel<basicReactingParcel> 1;
    Rebound             1;
    ReitzDiwakar        1;
    ReitzKHRT           1;
    RosinRammler        1;
    RutlandFlashBoil    1;
    SDA                 1;
    SFCD                1;
    SFCDV               1;
    SHF                 1;
    SIBS                1;
    SKA                 1;
    SLTS                1;
    SRFModel            1;
    SRFVelocity         1;
    STARCDRotation      1;
    Schaeffer           1;
    SchillerNaumann     1;
    SinclairJackson     1;
    SingleKineticRateDevolatilisation 1;
    SingleMixtureFraction   1;
    Smagorinsky         1;
    SolverPerformance   1;
    SpalartAllmaras     1;
    SpalartAllmarasDDES 1;
    SpalartAllmarasIDDES    1;
    SphereDrag          1;
    StandardWallInteraction 1;
    StaticHashTable     1;
    StochasticDispersionRAS 1;
    SuperBee            1;
    SuperBeeV           1;
    SurfaceReactionModel 1;
    Syamlal             1;
    SyamlalOBrien       1;
    SyamlalRogersOBrien 1;
    TAB                 1;
    Table               1;
    ThermoCloud<basicReactingParcel>    1;
    ThermoCloud<fluidThermoParcel>      1;
    ThermoParcel<basicReactingParcel>   1;
    ThermoParcel<fluidThermoParcel>     1;
    UMIST               1;
    UMISTV              1;
    UPstream            1;
    UpwindFitData<cubicUpwindFitPolynomial> 1;
    UpwindFitData<quadraticLinearUpwindFitPolynomial> 1;
    UpwindFitData<quadraticUpwindFitPolynomial>     1;
    WallInteractionModel 1;
    WenYu               1;
    aC11H10             1;
    absorptionEmissionModel 1;
    addCell             1;
    addFace             1;
    addPatchCellLayer   1;
    addPoint            1;
    advective           1;
    algebraicPair       1;
    alphaContactAngle   1;
    alphaFixedPressure  1;
    alphatWallFunction  1;
    angularOscillatingDisplacement  1;
    angularOscillatingVelocity  1;
    anisotropic         1;
    ash                 1;
    atomizationModel    1;
    attachDetach        1;
    autoDensity         1;
    snappyHexMeshDriver 1;
    snappyLayerDriver     1;
    snappyRefineDriver    1;
    snappySnapDriver      1;
    bC11H10             1;
    backgroundMeshDecomposition 1;
    backward            1;
    basePatch           1;
    basicKinematicCloud 1;
    basicKinematicParcel 1;
    basicMixture        1;
    basicReactingCloud  1;
    basicReactingParcel 1;
    fluidThermo         1;
    fluidThermoCloud    1;
    fluidThermoParcel   1;
    biLinearFit         1;
    binaryAbsorptionEmission 1;
    blended             1;
    blobsSheetAtomization   1;
    blobsSwirlInjector  1;
    booleanSurface      1;
    boundaryCutter      1;
    boundaryMesh        1;
    boundaryToFace      1;
    boundedBackward     1;
    boxToCell           1;
    boxToFace           1;
    boxToPoint          1;
    breakupModel        1;
    calculated          1;
    cell                1;
    cellClassification  1;
    cellCuts            1;
    cellDistFuncs       1;
    cellLimited         1;
    cellList            1;
    cellLooper          1;
    cellMDLimited       1;
    cellMotion          1;
    cellPoint           1;
    cellPointFace       1;
    cellPointWeight     1;
    cellSet             1;
    cellSizeControlSurfaces 1;
    cellToCell          1;
    cellToFace          1;
    cellToPoint         1;
    cellZone            1;
    centredCECStencil   1;
    centredCFCStencil   1;
    chemistryReader     1;
    chemistrySolver     1;
    chemkinReader       1;
    clippedLinear       1;
    cloud               1;
    cloudAbsorptionEmission 1;
    cloudScatter        1;
    collisionModel      1;
    combineFaces        1;
    commSchedule        1;
    commonRailInjector  1;
    compound            1;
    constInjector       1;
    constant            1;
    constantAbsorptionEmission  1;
    constantAlphaContactAngle   1;
    constantScatter     1;
    coordinateRotation  1;
    coordinateSystem    1;
    coordinateSystems   1;
    corrected           1;
    coupled             1;
    cubeRootVol         1;
    cubic               1;
    cubicUpwindFit      1;
    curve               1;
    cyclic              1;
    cyclicLduInterface  1;
    cyclicLduInterfaceField 1;
    cylinderToCell      1;
    cylindrical         1;
    decompositionMethod 1;
    definedHollowConeInjector 1;
    definedInjector     1;
    definedPressureSwirlInjector 1;
    diagTensorField     1;
    diagonal            1;
    dictionary          1;
    dimensionSet        1;
    mappedBase    1;
    mappedPatch   1;
    mappedVelocityFlux 1;
    directionMixed      1;
    directional         1;
    disallowGenericFvPatchField 1;
    disallowGenericPointPatchField 1;
    disallowGenericPolyPatch    1;
    dispersionLESModel  1;
    dispersionModel     1;
    dispersionRASModel  1;
    displacementComponentLaplacian 1;
    displacementInterpolation 1;
    displacementLaplacian 1;
    displacementSBRStress 1;
    distanceSurface     1;
    Distribution        1;
    downwind            1;
    dragModel           1;
    duplicatePoints     1;
    dx                  1;
    dynMixedSmagorinsky 1;
    dynOneEqEddy        1;
    dynSmagorinsky      1;
    dynamicAlphaContactAngle 1;
    dynamicFvMesh       1;
    dynamicInkJetFvMesh 1;
    dynamicMotionSolverFvMesh 1;
    dynamicRefineFvMesh 1;
    edgeIntersections   1;
    edgeList            1;
    edgeSurface         1;
    empty               1;
    engineMesh          1;
    enrichedPatch       1;
    epsilonWallFunction 1;
    errorDrivenRefinement   1;
    evaporationModel    1;
    exponential         1;
    extendedLeastSquares    1;
    extendedLeastSquaresVectors 1;
    face                1;
    faceAreaPair        1;
    faceCoupleInfo      1;
    faceLimited         1;
    faceList            1;
    faceMDLimited       1;
    faceSet             1;
    faceToCell          1;
    faceToFace          1;
    faceToPoint         1;
    faceZone            1;
    fan                 1;
    featureEdgeMesh     1;
    fieldToCell         1;
    file                1;
    fileName            2;
    filteredLinear      1;
    filteredLinear2     1;
    filteredLinear2V    1;
    filteredLinear3     1;
    filteredLinear3V    1;
    fixedEnthalpy       1;
    buoyantPressure 1;
    fixedFluxBoussinesqBuoyantPressure 1;
    fixedFluxPressure   1;
    fixedGradient       1;
    fixedInternalEnergy 1;
    fixedInternalValue  1;
    fixedNormalSlip     1;
    fixedPressureCompressibleDensity 1;
    fixedUnburntEnthalpy 1;
    fixedValue          1;
    flowRateInletVelocity   1;
    fluxCorrectedVelocity   1;
    foamChemistryReader 1;
    foamFile            1;
    forceCoeffs         1;
    forces              1;
    fourth              1;
    freestream          1;
    freestreamPressure  1;
    frictionalStressModel   1;
    functionObject      1;
    fv                  1;
    fvMesh              1;
    fvMeshDistribute    1;
    fvMotionSolver      1;
    fvPatchField        1;
    fvScalarMatrix      1;
    fvSchemes           1;
    fvSphericalTensorMatrix 1;
    fvSymmTensorMatrix  1;
    fvTensorMatrix      1;
    fvVectorMatrix      1;
    fvsPatchField       1;
    general             1;
    generic             1;
    genericPatch        1;
    geomCellLooper      1;
    geometricSurfacePatch   1;
    global              1;
    globalIndexAndTransform 1;
    globalMeshData      1;
    globalPoints        1;
    gnuplot             1;
    gradientDispersionRAS   1;
    gradientEnthalpy        1;
    gradientInternalEnergy  1;
    gradientUnburntEnthalpy 1;
    granularPressureModel   1;
    hCombustionThermo   1;
    hMixtureThermo<homogeneousMixture<constTransport<thermo<hConstThermo<perfectGas>>>>> 1;
    hMixtureThermo<homogeneousMixture<sutherlandTransport<thermo<janafThermo<perfectGas>>>>> 1;
    hMixtureThermo<inhomogeneousMixture<constTransport<thermo<hConstThermo<perfectGas>>>>> 1;
    hMixtureThermo<inhomogeneousMixture<sutherlandTransport<thermo<janafThermo<perfectGas>>>>> 1;
    hMixtureThermo<multiComponentMixture<sutherlandTransport<thermo<janafThermo<perfectGas>>>>> 1;
    hMixtureThermo<reactingMixture> 1;
    hMixtureThermo<veryInhomogeneousMixture<constTransport<thermo<hConstThermo<perfectGas>>>>> 1;
    hMixtureThermo<veryInhomogeneousMixture<sutherlandTransport<thermo<janafThermo<perfectGas>>>>> 1;
    hThermo<pureMixture<constTransport<thermo<hConstThermo<perfectGas>>>>> 1;
    hThermo<pureMixture<sutherlandTransport<thermo<hConstThermo<perfectGas>>>>> 1;
    hThermo<pureMixture<sutherlandTransport<thermo<janafThermo<perfectGas>>>>> 1;
    harmonic            1;
    heatTransferModel   1;
    hexCellLooper       1;
    hexRef8             1;
    hhuCombustionThermo 1;
    hhuMixtureThermo<egrMixture<constTransport<thermo<hConstThermo<perfectGas>>>>> 1;
    hhuMixtureThermo<egrMixture<sutherlandTransport<thermo<janafThermo<perfectGas>>>>> 1;
    hhuMixtureThermo<homogeneousMixture<constTransport<thermo<hConstThermo<perfectGas>>>>> 1;
    hhuMixtureThermo<homogeneousMixture<sutherlandTransport<thermo<janafThermo<perfectGas>>>>> 1;
    hhuMixtureThermo<inhomogeneousMixture<constTransport<thermo<hConstThermo<perfectGas>>>>> 1;
    hhuMixtureThermo<inhomogeneousMixture<sutherlandTransport<thermo<janafThermo<perfectGas>>>>> 1;
    hhuMixtureThermo<veryInhomogeneousMixture<constTransport<thermo<hConstThermo<perfectGas>>>>> 1;
    hhuMixtureThermo<veryInhomogeneousMixture<sutherlandTransport<thermo<janafThermo<perfectGas>>>>> 1;
    hierarchical        1;
    hollowConeInjector  1;
    iC3H8O              1;
    indexedOctree       1;
    indexedParticle     1;
    injectorModel       1;
    injectorType        1;
    inletOutlet         1;
    inletOutletTotalTemperature 1;
    interfaceCompression 1;
    intersectedSurface  1;
    inverseDistance     1;
    inverseFaceDistance 1;
    inversePointDistance 1;
    inverseVolume       1;
    isoSurface          1;
    isoSurfaceCell      1;
    jplot               1;
    jumpCyclic          1;
    kEpsilon            1;
    kOmega              1;
    kOmegaSST           1;
    kOmegaSSTSAS        1;
    kqRWallFunction     1;
    kinematicCloud      1;
    labelField          1;
    labelList           1;
    labelListList       1;
    labelToCell         1;
    labelToFace         1;
    labelToPoint        1;
    laminar             1;
    laminarFlameSpeed   1;
    laplace             1;
    layerAdditionRemoval 1;
    layered             1;
    lduInterface        1;
    lduInterfaceField   1;
    lduMatrix           1;
    lduMesh             1;
    leastSquares        1;
    leastSquaresVectors 1;
    level               2;
    limitWith           1;
    limited             1;
    limitedCubic        1;
    limitedCubic01      1;
    limitedCubicV       1;
    limitedGamma        1;
    limitedLimitedCubic 1;
    limitedLimitedLinear 1;
    limitedLinear       1;
    limitedLinear01     1;
    limitedLinearV      1;
    limitedMUSCL        1;
    limitedSurfaceInterpolationScheme 1;
    limitedVanLeer      1;
    linear              1;
    linearFit           1;
    linearUpwind        1;
    linearUpwindV       1;
    liquid              1;
    locDynOneEqEddy     1;
    localBlended        1;
    localMax            1;
    localMin            1;
    localPointRegion    1;
    lowReOneEqEddy      1;
    manual              1;
    meshCutAndRemove    1;
    meshCutter          1;
    meshModifier        1;
    meshObject          1;
    meshRefinement      1;
    meshSearch          1;
    meshToMesh          1;
    metis               1;
    midPoint            1;
    midPointAndFace     1;
    mixed               1;
    mixedEnthalpy       1;
    mixedInternalEnergy 1;
    mixedSmagorinsky    1;
    mixedUnburntEnthalpy 1;
    mixerFvMesh         1;
    modifyCell          1;
    modifyFace          1;
    modifyPoint         1;
    motionDiffusivity   1;
    motionDirectional   1;
    motionSmoother      1;
    motionSolver        1;
    movingConeTopoFvMesh 1;
    movingWallVelocity  1;
    muSgsSpalartAllmarasWallFunction 1;
    multiDirRefinement  1;
    multiHoleInjector   1;
    multiLevel          1;
    multivariateSelection 1;
    mutRoughWallFunction 1;
    mutSpalartAllmarasStandardRoughWallFunction  1;
    mutSpalartAllmarasStandardWallFunction  1;
    mutSpalartAllmarasWallFunction  1;
    mutWallFunction     1;
    nC3H8O              1;
    nbrToCell           1;
    nearestToCell       1;
    nearestToPoint      1;
    noAbsorptionEmission 1;
    noDragModel         1;
    noRadiation         1;
    none                1;
    normal              1;
    normalToFace        1;
    nuSgsSpalartAllmarasWallFunction 1;
    nutRoughWallFunction 1;
    nutSpalartAllmarasStandardRoughWallFunction  1;
    nutSpalartAllmarasStandardWallFunction  1;
    nutSpalartAllmarasWallFunction  1;
    nutWallFunction     1;
    obj                 1;
    objectRegistry      1;
    off                 1;
    omegaWallFunction   1;
    oneEqEddy           1;
    orientedSurface     1;
    oscillatingDisplacement 1;
    oscillatingFixedValue 1;
    oscillatingVelocity 1;
    outletInlet         1;
    outletStabilised    1;
    pair                1;
    parabolicCylindrical 1;
    parcel              1;
    partialSlip         1;
    passiveParticle     1;
    patch               1;
    patchToFace         1;
    patchZones          1;
    pdf                 1;
    perfectInterface    1;
    pointIndexHitList   1;
    pointPatchField     1;
    pointScalarField    1;
    pointScalarField::Internal 1;
    pointSet            1;
    pointSphericalTensorField 1;
    pointSphericalTensorField::Internal 1;
    pointSymmTensorField 1;
    pointSymmTensorField::Internal 1;
    pointTensorField    1;
    pointTensorField::Internal 1;
    pointToCell         1;
    pointToFace         1;
    pointToPoint        1;
    pointVectorField    1;
    pointVectorField::Internal 1;
    pointZone           1;
    polyBoundaryMesh    1;
    polyMesh            1;
    polyMeshGeometry    1;
    polyMeshInfo        1;
    polyTopoChange      1;
    polyTopoChanger     1;
    powerLaw            1;
    pressureDirectedInletOutletVelocity 1;
    pressureDirectedInletVelocity 1;
    pressureInletOutletVelocity 1;
    pressureInletUniformVelocity 1;
    pressureInletVelocity 1;
    pressureNormalInletOutletVelocity 1;
    pressureSwirlInjector 1;
    primitiveMesh       1;
    primitiveMeshGeometry 1;
    probes              1;
    processor           1;
    processorLduInterface 1;
    processorLduInterfaceField 1;
    pureMixture<constTransport<thermo<hConstThermo<perfectGas>>>> 1;
    pureMixture<sutherlandTransport<thermo<hConstThermo<perfectGas>>>> 1;
    pureMixture<sutherlandTransport<thermo<janafThermo<perfectGas>>>> 1;
    quadratic           1;
    quadraticFit        1;
    quadraticLinearFit  1;
    quadraticLinearUpwindFit 1;
    quadraticUpwindFit  1;
    radiationModel      1;
    raw                 1;
    reactingCloud       1;
    reaction            1;
    realizableKE        1;
    refinementHistory   1;
    refinementIterator  1;
    reflect             1;
    regIOobject         1;
    regionSplit         1;
    regionToCell        1;
    remove              1;
    removeCell          1;
    removeCells         1;
    removeFace          1;
    removeFaces         1;
    removePoint         1;
    removePoints        1;
    reverseLinear       1;
    rotatedBoxToCell    1;
    rotatingPressureInletOutletVelocity 1;
    rotatingTotalPressure 1;
    sampledPatch        1;
    sampledPlane        1;
    sampledSet          1;
    sampledSurface      1;
    saturateEvaporationModel 1;
    scalarAverageField  1;
    scalarField         1;
    scalarRange         1;
    scaleSimilarity     1;
    scatterModel        1;
    searchableBox       1;
    searchableSurface   1;
    sequential          1;
    setUpdater          1;
    sets                1;
    shapeList           1;
    shapeToCell         1;
    simple              1;
    sixDoFRigidBodyMotionConstraint 1;
    skewCorrected       1;
    skewCorrectionVectors 1;
    sliced              1;
    slidingInterface    1;
    slip                1;
    smooth              1;
    smoothSolver        1;
    solid               1;
    solidBodyMotionFunction 1;
    solidBodyMotionFvMesh 1;
    solution            1;
    specie              1;
    spectEddyVisc       1;
    sphereToCell        1;
    spherical           1;
    sphericalTensorAverageField 1;
    sphericalTensorField 1;
    standardDragModel   1;
    standardEvaporationModel 1;
    staticFvMesh        1;
    steadyState         1;
    stl                 1;
    string              1;
    stochasticDispersionRAS 1;
    supersonicFreestream 1;
    surfaceFeatures     1;
    surfaceInterpolation 1;
    surfaceInterpolationScheme 1;
    surfaceIntersection 1;
    surfaceNormalFixedValue 1;
    surfacePatch        1;
    surfacePatchIOList  1;
    surfaceScalarField  1;
    surfaceScalarField::Internal 1;
    surfaceSlipDisplacement 1;
    surfaceSphericalTensorField 1;
    surfaceSphericalTensorField::Internal 1;
    surfaceSymmTensorField 1;
    surfaceSymmTensorField::Internal 1;
    surfaceTensorField 1;
    surfaceTensorField::Internal 1;
    surfaceToCell       1;
    surfaceToPoint      1;
    surfaceVectorField  1;
    surfaceVectorField::Internal 1;
    surfaceWriter       1;
    surfaces            1;
    swirlInjector       1;
    symmTensorAverageField 1;
    symmTensorField     1;
    symmetryPlane       1;
    symmetry            1;
    syringePressure     1;
    tensorAverageField  1;
    tensorField         1;
    tetDecomposedPolyMesh 1;
    thermoCloud         1;
    thermophysicalFunction 1;
    time                1;
    timeVaryingAlphaContactAngle 1;
    timeVaryingFlowRateInletVelocity 1;
    timeVaryingMappedFixedValue 1;
    timeVaryingTotalPressure 1;
    timeVaryingUniformFixedValue 1;
    timer               1;
    topoAction          1;
    topoCellLooper      1;
    topoChangerFvMesh   1;
    topoSet             1;
    topoSetSource       1;
    toroidal            1;
    totalPressure       1;
    totalTemperature    1;
    trackedParticle     1;
    trajectory          1;
    transform           1;
    treeDataCell        1;
    treeDataFace        1;
    treeDataTriSurface  1;
    treeLeaf            1;
    treeNode            1;
    triSurface          1;
    triSurfaceMesh      1;
    turbulenceModel     1;
    turbulentInlet      1;
    turbulentIntensityKineticEnergyInlet 1;
    turbulentMixingLengthDissipationRateInlet 1;
    turbulentMixingLengthFrequencyInlet 1;
    uncorrected         1;
    undoableMeshCutter  1;
    uniform             1;
    uniformFixedValue   1;
    unitInjector        1;
    upwind              1;
    upwindCFCStencil    1;
    value               1;
    vanAlbada           1;
    vanAlbadaV          1;
    vanDriest           1;
    vanLeer             1;
    vanLeer01           1;
    vanLeerV            1;
    vector2DField       1;
    vectorAverageField  1;
    vectorField         1;
    velocityComponentLaplacian 1;
    velocityLaplacian   1;
    viscosityModel      1;
    volPointInterpolation 1;
    volScalarField      1;
    volScalarField::Internal 1;
    volSphericalTensorField 1;
    volSphericalTensorField::Internal 1;
    volSymmTensorField  1;
    volSymmTensorField::Internal 1;
    volTensorField      1;
    volTensorField::Internal 1;
    volVectorField      1;
    volVectorField::Internal 1;
    vtk                 1;
    walkPatch           1;
    wall                1;
    wallHeatTransfer    1;
    wallLayerCells      1;
    wallModel           1;
    waveTransmissive    1;
    wedge               1;
    weighted            1;
    word                1;
    writer              1;
    xmgr                1;
    zeroGradient        1;
    zoneToCell          1;
    zoneToFace          1;
    zoneToPoint         1;
}


DimensionedConstants
{
    unitSet             SI; // USCS

    SICoeffs
    {
        universal
        {
            c               c [0 1 -1 0 0 0 0] 2.99792e+08;
            G               G [-1 3 -2 0 0 0 0] 6.67429e-11;
            h               h [1 2 -1 0 0 0 0] 6.62607e-34;
        }
        electromagnetic
        {
            e               e [0 0 1 0 0 1 0] 1.60218e-19;
        }
        atomic
        {
            me              me [1 0 0 0 0 0 0] 9.10938e-31;
            mp              mp [1 0 0 0 0 0 0] 1.67262e-27;
        }
        physicoChemical
        {
            mu              mu [1 0 0 0 0 0 0] 1.66054e-27;
            k               k [1 2 -2 -1 0 0 0] 1.38065e-23;
        }
        standard
        {
            //- Standard pressure [Pa]
            Pstd            Pstd [1 -1 -2 0 0 0 0] 1e5;
            //- Standard temperature [degK]
            Tstd            Tstd [0 0 0 1 0 0 0] 298.15;
        }
    }
    USCSCoeffs
    {
        universal
        {
            c               c [0 1 -1 0 0 0 0] 9.83558e+08;
            G               G [-1 3 -2 0 0 0 0] 1.06909e-09;
            h               h [1 2 -1 0 0 0 0] 1.57234e-32;
        }
        electromagnetic
        {
            e               e [0 0 1 0 0 1 0] 1.60218e-19;
        }
        atomic
        {
            me              me [1 0 0 0 0 0 0] 2.00825e-30;
            mp              mp [1 0 0 0 0 0 0] 3.68746e-27;
        }
        physicoChemical
        {
            mu              mu [1 0 0 0 0 0 0] 3.66083e-27;
            k               k [1 2 -2 -1 0 0 0] 1.82012e-22;
        }
        standard
        {
            //- Standard pressure [lbm/ft^2]
            Pstd            Pstd [1 -1 -2 0 0 0 0] 2088.6;
            //- Standard temperature [degR]
            Tstd            Tstd [0 0 0 1 0 0 0] 536.67;
        }
    }
}


DimensionSets
{
    unitSet             SI; // USCS

    SICoeffs
    {
        // Basic units
        kg  kg  [1 0 0 0 0 0 0] 1.0;
        m   m   [0 1 0 0 0 0 0] 1.0;
        s   s   [0 0 1 0 0 0 0] 1.0;
        K   K   [0 0 0 1 0 0 0] 1.0;
        mol mol [0 0 0 0 1 0 0] 1.0;
        A   A   [0 0 0 0 0 1 0] 1.0;
        Cd  Cd  [0 0 0 0 0 0 1] 1.0;

        // Derived units